[Format]      =  4.0
[Frequency]   =  0
[Precision]   =  1e-008
[MinAngle]    =  30
[Depth]       =  1
[LengthUnits] =  centimeters
[ProblemType] =  planar
[Coordinates] =  cartesian
[ACSolver]    =  0
[PrevSoln]    =  ""
[Comment]     =  "Add comments here."
[PointProps]   = 0
[BdryProps]   = 1
  <BeginBdry>
    <BdryName> = "Boundary"
    <BdryType> = 0
    <A_0> = 0
    <A_1> = 0
    <A_2> = 0
    <Phi> = 0
    <c0> = 0
    <c0i> = 0
    <c1> = 0
    <c1i> = 0
    <Mu_ssd> = 0
    <Sigma_ssd> = 0
  <EndBdry>
[BlockProps]  = 5
  <BeginBlock>
    <BlockName> = "Air"
    <Mu_x> = 1
    <Mu_y> = 1
    <H_c> = 0
    <H_cAngle> = 0
    <J_re> = 0
    <J_im> = 0
    <Sigma> = 0
    <d_lam> = 0
    <Phi_h> = 0
    <Phi_hx> = 0
    <Phi_hy> = 0
    <LamType> = 0
    <LamFill> = 1
    <NStrands> = 0
    <WireD> = 0
    <BHPoints> = 0
  <EndBlock>
  <BeginBlock>
    <BlockName> = "Pure Iron"
    <Mu_x> = 14872
    <Mu_y> = 14872
    <H_c> = 0
    <H_cAngle> = 0
    <J_re> = 0
    <J_im> = 0
    <Sigma> = 10.44
    <d_lam> = 0
    <Phi_h> = 0
    <Phi_hx> = 0
    <Phi_hy> = 0
    <LamType> = 0
    <LamFill> = 1
    <NStrands> = 0
    <WireD> = 0
    <BHPoints> = 21
      0	0
      0.22706499999999999	13.898400000000001
      0.45412999999999998	27.796700000000001
      0.68119499999999999	42.397399999999998
      0.90825999999999996	61.415700000000001
      1.13533	82.382400000000004
      1.36239	144.66900000000001
      1.58935	897.75999999999999
      1.81236	4581.7399999999998
      2.01004	17736.200000000001
      2.1331600000000002	41339.300000000003
      2.1999900000000001	68321.800000000003
      2.2547899999999998	95685.5
      2.2999299999999998	123355
      2.3425099999999999	151083
      2.3787600000000002	178954
      2.4150100000000001	206825
      2.45126	234696
      2.4874999999999998	262568
      2.5237500000000002	290439
      2.5600000000000001	318310
  <EndBlock>
  <BeginBlock>
    <BlockName> = "Hiperco-50"
    <Mu_x> = 3520
    <Mu_y> = 3520
    <H_c> = 0
    <H_cAngle> = 0
    <J_re> = 0
    <J_im> = 0
    <Sigma> = 2.5
    <d_lam> = 0
    <Phi_h> = 20
    <Phi_hx> = 0
    <Phi_hy> = 0
    <LamType> = 0
    <LamFill> = 1
    <NStrands> = 0
    <WireD> = 0
    <BHPoints> = 22
      0	0
      0.29072999999999999	81.170000000000002
      0.42870999999999998	106.8
      0.58955999999999997	136.84
      0.79627000000000003	179.91
      1.0201	233.41
      1.1980999999999999	283.70999999999998
      1.3989	344.75
      1.5596000000000001	402.92000000000002
      1.7835000000000001	536.63999999999999
      1.8985000000000001	670.10000000000002
      1.9906999999999999	893.79999999999995
      2.0543999999999998	1290.4000000000001
      2.1183999999999998	2209.8000000000002
      2.1476999999999999	3233.6999999999998
      2.177	4549
      2.2065000000000001	7297.8000000000002
      2.2416999999999998	11554
      2.2711999999999999	18294
      2.2890000000000001	25071
      2.3126000000000002	36690
      2.3410000000000002	62037
  <EndBlock>
  <BeginBlock>
    <BlockName> = "16 AWG"
    <Mu_x> = 1
    <Mu_y> = 1
    <H_c> = 0
    <H_cAngle> = 0
    <J_re> = 0
    <J_im> = 0
    <Sigma> = 58
    <d_lam> = 0
    <Phi_h> = 0
    <Phi_hx> = 0
    <Phi_hy> = 0
    <LamType> = 3
    <LamFill> = 1
    <NStrands> = 1
    <WireD> = 1.2911827701741401
    <BHPoints> = 0
  <EndBlock>
  <BeginBlock>
    <BlockName> = "24 AWG"
    <Mu_x> = 1
    <Mu_y> = 1
    <H_c> = 0
    <H_cAngle> = 0
    <J_re> = 0
    <J_im> = 0
    <Sigma> = 58
    <d_lam> = 0
    <Phi_h> = 0
    <Phi_hx> = 0
    <Phi_hy> = 0
    <LamType> = 3
    <LamFill> = 1
    <NStrands> = 1
    <WireD> = 0.510714027632857
    <BHPoints> = 0
  <EndBlock>
[CircuitProps]  = 3
  <BeginCircuit>
    <CircuitName> = "HorizontalCircuit"
    <TotalAmps_re> = 4
    <TotalAmps_im> = 0
    <CircuitType> = 1
  <EndCircuit>
  <BeginCircuit>
    <CircuitName> = "VerticalCircuit"
    <TotalAmps_re> = 4
    <TotalAmps_im> = 0
    <CircuitType> = 0
  <EndCircuit>
  <BeginCircuit>
    <CircuitName> = "Vert2Circuit"
    <TotalAmps_re> = 4
    <TotalAmps_im> = 0
    <CircuitType> = 1
  <EndCircuit>
[NumPoints] = 62
7.5	5	0	0
7.5	2.5	0	0
7.5	0	0	0
7.5	7.5	0	0
10	0	0	0
10	7.5	0	0
17.5	5	0	0
17.5	2.5	0	0
17.5	0	0	0
17.5	7.5	0	0
20	7.5	0	0
20	5	0	0
20	2.5	0	0
20	0	0	0
10	5	0	0
10	2.5	0	0
1.25	5.2000000000000002	0	0
1.25	2.2999999999999998	0	0
6.25	5.2000000000000002	0	0
6.25	2.2999999999999998	0	0
1.25	5	0	0
1.25	2.5	0	0
6.25	5	0	0
6.25	2.5	0	0
7.2999999999999998	7.5	0	0
7.2999999999999998	0	0	0
10.199999999999999	7.5	0	0
10.199999999999999	0	0	0
11.25	5.2000000000000002	0	0
11.25	5	0	0
11.25	2.5	0	0
11.25	2.2999999999999998	0	0
16.25	5	0	0
16.25	5.2000000000000002	0	0
16.25	2.5	0	0
16.25	2.2999999999999998	0	0
17.300000000000001	7.5	0	0
17.300000000000001	0	0	0
20.199999999999999	7.5	0	0
20.199999999999999	0	0	0
21.25	5	0	0
21.25	5.2000000000000002	0	0
21.25	2.5	0	0
21.25	2.2999999999999998	0	0
26.25	5	0	0
26.25	5.2000000000000002	0	0
26.25	2.5	0	0
26.25	2.2999999999999998	0	0
7.2999999999999998	5	0	0
7.2999999999999998	2.5	0	0
10.199999999999999	5	0	0
10.199999999999999	2.5	0	0
17.300000000000001	5	0	0
17.300000000000001	2.5	0	0
20.199999999999999	5	0	0
20.199999999999999	2.5	0	0
0	5	0	0
0	2.5	0	0
27.5	5	0	0
27.5	2.5	0	0
13.75	34	0	0
13.75	-30.25	0	0
[NumSegments] = 74
0	3	-1	0	0	0
3	5	-1	0	0	0
1	2	-1	0	0	0
2	4	-1	0	0	0
5	14	-1	0	0	0
15	4	-1	0	0	0
14	50	-1	0	0	0
15	51	-1	0	0	0
7	8	-1	0	0	0
6	9	-1	0	0	0
9	10	-1	0	0	0
10	11	-1	0	0	0
8	13	-1	0	0	0
13	12	-1	0	0	0
11	54	-1	0	0	0
12	55	-1	0	0	0
21	23	-1	0	0	0
22	20	-1	0	0	0
23	49	-1	0	0	0
22	48	-1	0	0	0
29	32	-1	0	0	0
30	34	-1	0	0	0
32	52	-1	0	0	0
34	53	-1	0	0	0
40	44	-1	0	0	0
42	46	-1	0	0	0
20	16	-1	0	0	0
16	18	-1	0	0	0
18	22	-1	0	0	0
21	17	-1	0	0	0
17	19	-1	0	0	0
23	19	-1	0	0	0
24	3	-1	0	0	0
5	26	-1	0	0	0
25	2	-1	0	0	0
27	4	-1	0	0	0
29	28	-1	0	0	0
28	33	-1	0	0	0
33	32	-1	0	0	0
30	31	-1	0	0	0
31	35	-1	0	0	0
35	34	-1	0	0	0
36	9	-1	0	0	0
10	38	-1	0	0	0
37	8	-1	0	0	0
39	13	-1	0	0	0
40	41	-1	0	0	0
41	45	-1	0	0	0
45	44	-1	0	0	0
43	42	-1	0	0	0
43	47	-1	0	0	0
47	46	-1	0	0	0
48	0	-1	0	0	0
49	1	-1	0	0	0
50	29	-1	0	0	0
51	30	-1	0	0	0
52	6	-1	0	0	0
53	7	-1	0	0	0
54	40	-1	0	0	0
55	42	-1	0	0	0
24	48	-1	0	0	0
26	50	-1	0	0	0
25	49	-1	0	0	0
27	51	-1	0	0	0
37	53	-1	0	0	0
39	55	-1	0	0	0
54	38	-1	0	0	0
36	52	-1	0	0	0
56	57	-1	0	0	0
57	21	-1	0	0	0
56	20	-1	0	0	0
58	59	-1	0	0	0
46	59	-1	0	0	0
58	44	-1	0	0	0
[NumArcSegments] = 2
60	61	180	1	0	0	0
61	60	180	1	0	0	0
[NumHoles] = 0
[NumBlockLabels] = 16
7.9299999999999997	4.5099999999999998	2	-1	0	0	0	1	0
3.1600000000000001	5.0899999999999999	5	-1	1	0	0	100	0
2.02	2.3900000000000001	5	-1	1	0	0	-100	0
7.4299999999999997	5.9100000000000001	5	-1	3	0	0	-50	0
10.09	5.9299999999999997	5	-1	3	0	0	50	0
7.3899999999999997	1.27	5	-1	3	0	0	-50	0
13.619999999999999	5.1100000000000003	5	-1	1	0	0	-100	0
13.119999999999999	2.4100000000000001	5	-1	1	0	0	100	0
17.399999999999999	6.4699999999999998	5	-1	3	0	0	50	0
20.100000000000001	5.8899999999999997	5	-1	3	0	0	-50	0
17.379999999999999	1.8700000000000001	5	-1	3	0	0	50	0
20.100000000000001	1.29	5	-1	3	0	0	-50	0
23.140000000000001	2.4300000000000002	5	-1	1	0	0	-100	0
23.800000000000001	5.0899999999999999	5	-1	1	0	0	100	0
14.16	8.5399999999999991	1	-1	0	0	0	1	0
10.119999999999999	0.93999999999999995	5	-1	3	0	0	50	0
